sim-outorder: SimpleScalar/Alpha Tool Set version 3.0 of August, 2003.
Copyright (c) 1994-2003 by Todd M. Austin, Ph.D. and SimpleScalar, LLC.
All Rights Reserved. This version of SimpleScalar is licensed for academic
non-commercial use.  No portion of this work may be used by any commercial
entity, or for any commercial purpose, without the prior written permission
of SimpleScalar, LLC (info@simplescalar.com).


Processor Parameters:
Issue Width: 4
Window Size: 128
Number of Virtual Registers: 32
Number of Physical Registers: 128
Datapath Width: 64
Total Power Consumption: 95.1592
Branch Predictor Power Consumption: 4.52313  (4.86%)
 branch target buffer power (W): 4.16837
 local predict power (W): 0.0879711
 global predict power (W): 0.0996078
 chooser power (W): 0.0702439
 RAS power (W): 0.0969383
Rename Logic Power Consumption: 0.616985  (0.662%)
 Instruction Decode Power (W): 0.0159915
 RAT decode_power (W): 0.113514
 RAT wordline_power (W): 0.0447235
 RAT bitline_power (W): 0.431848
 DCL Comparators (W): 0.0109075
Instruction Window Power Consumption: 8.19411  (8.8%)
 tagdrive (W): 0.277708
 tagmatch (W): 0.106989
 Selection Logic (W): 0.0295277
 decode_power (W): 0.543666
 wordline_power (W): 0.0844643
 bitline_power (W): 7.15176
Load/Store Queue Power Consumption: 3.73642  (4.01%)
 tagdrive (W): 1.55613
 tagmatch (W): 0.604642
 decode_power (W): 0.0616683
 wordline_power (W): 0.0150119
 bitline_power (W): 1.49897
Arch. Register File Power Consumption: 3.57247  (3.83%)
 decode_power (W): 0.113514
 wordline_power (W): 0.0844643
 bitline_power (W): 3.37449
Result Bus Power Consumption: 5.42703  (5.83%)
Total Clock Power: 29.4661  (31.6%)
Int ALU Power: 4.66013  (5%)
FP ALU Power: 14.281  (15.3%)
Instruction Cache Power Consumption: 3.97049  (4.26%)
 decode_power (W): 1.67268
 wordline_power (W): 0.028656
 bitline_power (W): 1.5122
 senseamp_power (W): 0.096
 tagarray_power (W): 0.660946
Itlb_power (W): 0.263317 (0.283%)
Data Cache Power Consumption: 8.34726  (8.96%)
 decode_power (W): 1.44978
 wordline_power (W): 0.196735
 bitline_power (W): 4.58765
 senseamp_power (W): 0.768
 tagarray_power (W): 1.34509
Dtlb_power (W): 0.900515 (0.967%)
Level 2 Cache Power Consumption: 5.20014 (5.58%)
 decode_power (W): 0.41817
 wordline_power (W): 0.0430878
 bitline_power (W): 3.0244
 senseamp_power (W): 0.192
 tagarray_power (W): 1.52247
sim-main: initalizing context 0:test.arg
args: 0:hello 
sim: loading binary...
sim: loading hello
warning: section `.comment' ignored...
sim: command line: ./sim-outorder -duplicate:addr_file addresses_20percent.txt -max:inst 10000000000 test.arg 

sim: simulation started @ Thu Jul  3 20:32:39 2025, options follow:

sim-outorder: This simulator implements a very detailed out-of-order issue
superscalar processor with a two-level memory system and speculative
execution support.  This simulator is a performance simulator, tracking the
latency of all pipeline operations.

# -config                     # load configuration from a file
# -dumpconfig                 # dump configuration to a file
# -h                    false # print help message    
# -v                    false # verbose operation     
# -d                    false # enable debug message  
# -i                    false # start in Dlite debugger
-seed                       1 # random number generator seed (0 for timer seed)
# -q                    false # initialize and terminate immediately
# -redir:sim           <null> # redirect simulator output to file (non-interactive only)
# -redir:prog          <null> # redirect simulated program output to file
-nice                       0 # simulator scheduling priority
-max:inst          1410065408 # maximum number of inst's to execute
-fastfwd              1000000 # number of insts skipped before timing starts
# -ptrace              <null> # generate pipetrace, i.e., <fname|stdout|stderr> <range>
-fetch:speed                1 # speed of front-end of machine relative to execution core
-bpred                  bimod # branch predictor type {nottaken|taken|perfect|bimod|2lev|comb}
-bpred:bimod     2048 # bimodal predictor config (<table size>)
-bpred:2lev      1 1024 8 0 # 2-level predictor config (<l1size> <l2size> <hist_size> <xor>)
-bpred:comb      1024 # combining predictor config (<meta_table_size>)
-bpred:ras                  8 # return address stack size (0 for no return stack)
-bpred:btb       512 4 # BTB config (<num_sets> <associativity>)
# -bpred:spec_update       <null> # speculative predictors update in {ID|WB} (default non-spec)
-cpred                  bimod # cache load-latency predictor type {nottaken|taken|perfect|bimod|2lev|comb}
-cpred:bimod     2048 # cache load-latency bimodal predictor config (<table size>)
-cpred:2lev      1 1024 8 0 # cache load-latency 2-level predictor config (<l1size> <l2size> <hist_size> <xor>)
-cpred:comb      1024 # cache load-latency combining predictor config (<meta_table_size>)
-cpred:ras                  0 # return address stack size (0 for no return stack)
-cpred:btb       512 4 # cache load-latency BTB config (<num_sets> <associativity>)
-decode:width               4 # instruction decode B/W (insts/cycle)
-issue:width                4 # instruction issue B/W (insts/cycle)
-issue:inorder          false # run pipeline with in-order issue
-issue:wrongpath         true # issue instructions down wrong execution paths
-commit:width               4 # instruction commit B/W (insts/cycle)
-rob:size                 128 # reorder buffer (ROB) size
-fetch:policy |icount|round_robin|       icount # fetch policy          
-duplicate:addr_file addresses_20percent.txt # file containing list of instruction addresses to duplicate
-recovery:model        squash # Alpha squash recovery or perfect predition: |squash|perfect|
-iq:size                   32 # issue queue (IQ) size 
-iq:issue_exec_delay            1 # minimum cycles between issue and execution
-fetch_rename_delay            4 # number of cycles between fetch and rename stages
-rename_dispatch_delay            1 # number cycles between rename and dispatch stages
-rf:size                  128 # register file (RF) size for each the INT and FP physical register file)
-lsq:size                  48 # load/store queue (LSQ) size
-cache:dl1       dl1:256:32:4:l # l1 data cache config, i.e., {<config>|none}
-cache:dl1lat               1 # l1 data cache hit latency (in cycles)
-cache:dl2       ul2:1024:64:8:l # l2 data cache config, i.e., {<config>|none}
-cache:dl2lat               6 # l2 data cache hit latency (in cycles)
-cache:il1       il1:512:32:2:l # l1 inst cache config, i.e., {<config>|dl1|dl2|none}
-cache:il1lat               1 # l1 instruction cache hit latency (in cycles)
-cache:il2                dl2 # l2 instruction cache config, i.e., {<config>|dl2|none}
-cache:il2lat               6 # l2 instruction cache hit latency (in cycles)
-cache:flush            false # flush caches on system calls
-cache:icompress        false # convert 64-bit inst addresses to 32-bit inst equivalents
-mem:lat         100 2 # memory access latency (<first_chunk> <inter_chunk>)
-mem:width                  8 # memory access bus width (in bytes)
-tlb:itlb        itlb:16:4096:4:l # instruction TLB config, i.e., {<config>|none}
-tlb:dtlb        dtlb:32:4096:4:l # data TLB config, i.e., {<config>|none}
-tlb:lat                   30 # inst/data TLB miss latency (in cycles)
-res:ialu                   4 # total number of integer ALU's available
-res:imult                  1 # total number of integer multiplier/dividers available
-res:memport                2 # total number of memory system ports available (to CPU)
-res:fpalu                  4 # total number of floating point ALU's available
-res:fpmult                 1 # total number of floating point multiplier/dividers available
# -pcstat              <null> # profile stat(s) against text addr's (mult uses ok)
-power:print_stats         true # print power statistics collected by wattch?

  Pipetrace range arguments are formatted as follows:

    {{@|#}<start>}:{{@|#|+}<end>}

  Both ends of the range are optional, if neither are specified, the entire
  execution is traced.  Ranges that start with a `@' designate an address
  range to be traced, those that start with an `#' designate a cycle count
  range.  All other range values represent an instruction count range.  The
  second argument, if specified with a `+', indicates a value relative
  to the first argument, e.g., 1000:+100 == 1000:1100.  Program symbols may
  be used in all contexts.

    Examples:   -ptrace FOO.trc #0:#1000
                -ptrace BAR.trc @2000:
                -ptrace BLAH.trc :1500
                -ptrace UXXE.trc :
                -ptrace FOOBAR.trc @main:+278

  Branch predictor configuration examples for 2-level predictor:
    Configurations:   N, M, W, X
      N   # entries in first level (# of shift register(s))
      W   width of shift register(s)
      M   # entries in 2nd level (# of counters, or other FSM)
      X   (yes-1/no-0) xor history and address for 2nd level index
    Sample predictors:
      GAg     : 1, W, 2^W, 0
      GAp     : 1, W, M (M > 2^W), 0
      PAg     : N, W, 2^W, 0
      PAp     : N, W, M (M == 2^(N+W)), 0
      gshare  : 1, W, 2^W, 1
  Predictor `comb' combines a bimodal and a 2-level predictor.

  The cache config parameter <config> has the following format:

    <name>:<nsets>:<bsize>:<assoc>:<repl>

    <name>   - name of the cache being defined
    <nsets>  - number of sets in the cache
    <bsize>  - block size of the cache
    <assoc>  - associativity of the cache
    <repl>   - block replacement strategy, 'l'-LRU, 'f'-FIFO, 'r'-random

    Examples:   -cache:dl1 dl1:4096:32:1:l
                -dtlb dtlb:128:4096:32:r

  Cache levels can be unified by pointing a level of the instruction cache
  hierarchy at the data cache hiearchy using the "dl1" and "dl2" cache
  configuration arguments.  Most sensible combinations are supported, e.g.,

    A unified l2 cache (il2 is pointed at dl2):
      -cache:il1 il1:128:64:1:l -cache:il2 dl2
      -cache:dl1 dl1:256:32:1:l -cache:dl2 ul2:1024:64:2:l

    Or, a fully unified cache hierarchy (il1 pointed at dl1):
      -cache:il1 dl1
      -cache:dl1 ul1:256:32:1:l -cache:dl2 ul2:1024:64:2:l



Loaded 5 addresses for selective duplication from 'addresses_20percent.txt'
sim: ** fast forwarding insts **
sim: ** starting performance simulation **

sim: ** simulation statistics **
sim_num_insn                2200196 # total number of instructions committed
sim_num_insn 0              2200195 # total number of instructions committed for this thread
sim_num_refs                 825077 # total number of loads and stores committed
sim_num_loads                550051 # total number of loads committed
sim_num_stores          275026.0000 # total number of stores committed
sim_num_branches             137513 # total number of branches committed
sim_elapsed_time                 11 # total simulation time in seconds
sim_inst_rate           200017.8182 # simulation speed (in insts/sec)
sim_total_insn              2200306 # total number of instructions executed
sim_total_refs               825123 # total number of loads and stores executed
sim_total_loads              550083 # total number of loads executed
sim_total_stores        275040.0000 # total number of stores executed
sim_total_branches           137519 # total number of branches executed
sim_cycle                    950450 # total simulation time in cycles
sim_IPC                      2.3149 # instructions per cycle
sim_CPI                      0.4320 # cycles per instruction
sim_exec_BW                  2.3150 # total instructions (mis-spec + committed) per cycle
sim_IPB                     15.9999 # instruction per branch
sim_slip                   72816789 # total number of slip cycles
avg_sim_slip                33.0956 # the average slip between issue and retirement
Thread_0_bpred_bimod.lookups       137521 # total number of bpred lookups
Thread_0_bpred_bimod.updates       137513 # total number of updates
Thread_0_bpred_bimod.addr_hits       137509 # total number of address-predicted hits
Thread_0_bpred_bimod.dir_hits       137510 # total number of direction-predicted hits (includes addr-hits)
Thread_0_bpred_bimod.misses            3 # total number of misses
Thread_0_bpred_bimod.jr_hits            0 # total number of address-predicted hits for JR's
Thread_0_bpred_bimod.jr_seen            0 # total number of JR's seen
Thread_0_bpred_bimod.jr_non_ras_hits.PP            0 # total number of address-predicted hits for non-RAS JR's
Thread_0_bpred_bimod.jr_non_ras_seen.PP            0 # total number of non-RAS JR's seen
Thread_0_bpred_bimod.bpred_addr_rate    1.0000 # branch address-prediction rate (i.e., addr-hits/updates)
Thread_0_bpred_bimod.bpred_dir_rate    1.0000 # branch direction-prediction rate (i.e., all-hits/updates)
Thread_0_bpred_bimod.bpred_jr_rate <error: divide by zero> # JR address-prediction rate (i.e., JR addr-hits/JRs seen)
Thread_0_bpred_bimod.bpred_jr_non_ras_rate.PP <error: divide by zero> # non-RAS JR addr-pred rate (ie, non-RAS JR hits/JRs seen)
Thread_0_bpred_bimod.retstack_pushes            0 # total number of address pushed onto ret-addr stack
Thread_0_bpred_bimod.retstack_pops            0 # total number of address popped off of ret-addr stack
Thread_0_bpred_bimod.used_ras.PP            0 # total number of RAS predictions used
Thread_0_bpred_bimod.ras_hits.PP            0 # total number of RAS hits
Thread_0_bpred_bimod.ras_rate.PP <error: divide by zero> # RAS prediction rate (i.e., RAS hits/used RAS)
Thread_0_cpred_bimod.lookups       550058 # total number of bpred lookups
Thread_0_cpred_bimod.updates       550058 # total number of updates
Thread_0_cpred_bimod.addr_hits        37517 # total number of address-predicted hits
Thread_0_cpred_bimod.dir_hits        37517 # total number of direction-predicted hits (includes addr-hits)
Thread_0_cpred_bimod.misses       512541 # total number of misses
Thread_0_cpred_bimod.jr_hits            0 # total number of address-predicted hits for JR's
Thread_0_cpred_bimod.jr_seen            0 # total number of JR's seen
Thread_0_cpred_bimod.jr_non_ras_hits.PP            0 # total number of address-predicted hits for non-RAS JR's
Thread_0_cpred_bimod.jr_non_ras_seen.PP            0 # total number of non-RAS JR's seen
Thread_0_cpred_bimod.bpred_addr_rate    0.0682 # branch address-prediction rate (i.e., addr-hits/updates)
Thread_0_cpred_bimod.bpred_dir_rate    0.0682 # branch direction-prediction rate (i.e., all-hits/updates)
Thread_0_cpred_bimod.bpred_jr_rate <error: divide by zero> # JR address-prediction rate (i.e., JR addr-hits/JRs seen)
Thread_0_cpred_bimod.bpred_jr_non_ras_rate.PP <error: divide by zero> # non-RAS JR addr-pred rate (ie, non-RAS JR hits/JRs seen)
Thread_0_cpred_bimod.retstack_pushes            0 # total number of address pushed onto ret-addr stack
Thread_0_cpred_bimod.retstack_pops            0 # total number of address popped off of ret-addr stack
Thread_0_cpred_bimod.used_ras.PP            0 # total number of RAS predictions used
Thread_0_cpred_bimod.ras_hits.PP            0 # total number of RAS hits
Thread_0_cpred_bimod.ras_rate.PP <error: divide by zero> # RAS prediction rate (i.e., RAS hits/used RAS)
il1.accesses                2200347 # total number of accesses
il1.hits                    2200340 # total number of hits
il1.misses                        7 # total number of misses
il1.replacements                  0 # total number of replacements
il1.writebacks                    0 # total number of writebacks
il1.invalidations                 0 # total number of invalidations
il1.miss_rate                0.0000 # miss rate (i.e., misses/ref)
il1.repl_rate                0.0000 # replacement rate (i.e., repls/ref)
il1.wb_rate                  0.0000 # writeback rate (i.e., wrbks/ref)
il1.inv_rate                 0.0000 # invalidation rate (i.e., invs/ref)
dl1.accesses                 300037 # total number of accesses
dl1.hits                     300037 # total number of hits
dl1.misses                        0 # total number of misses
dl1.replacements                  0 # total number of replacements
dl1.writebacks                    0 # total number of writebacks
dl1.invalidations                 0 # total number of invalidations
dl1.miss_rate                0.0000 # miss rate (i.e., misses/ref)
dl1.repl_rate                0.0000 # replacement rate (i.e., repls/ref)
dl1.wb_rate                  0.0000 # writeback rate (i.e., wrbks/ref)
dl1.inv_rate                 0.0000 # invalidation rate (i.e., invs/ref)
ul2.accesses                      7 # total number of accesses
ul2.hits                          4 # total number of hits
ul2.misses                        3 # total number of misses
ul2.replacements                  0 # total number of replacements
ul2.writebacks                    0 # total number of writebacks
ul2.invalidations                 0 # total number of invalidations
ul2.miss_rate                0.4286 # miss rate (i.e., misses/ref)
ul2.repl_rate                0.0000 # replacement rate (i.e., repls/ref)
ul2.wb_rate                  0.0000 # writeback rate (i.e., wrbks/ref)
ul2.inv_rate                 0.0000 # invalidation rate (i.e., invs/ref)
itlb.accesses               2200347 # total number of accesses
itlb.hits                   2200347 # total number of hits
itlb.misses                       0 # total number of misses
itlb.replacements                 0 # total number of replacements
itlb.writebacks                   0 # total number of writebacks
itlb.invalidations                0 # total number of invalidations
itlb.miss_rate               0.0000 # miss rate (i.e., misses/ref)
itlb.repl_rate               0.0000 # replacement rate (i.e., repls/ref)
itlb.wb_rate                 0.0000 # writeback rate (i.e., wrbks/ref)
itlb.inv_rate                0.0000 # invalidation rate (i.e., invs/ref)
dtlb.accesses                825084 # total number of accesses
dtlb.hits                    825084 # total number of hits
dtlb.misses                       0 # total number of misses
dtlb.replacements                 0 # total number of replacements
dtlb.writebacks                   0 # total number of writebacks
dtlb.invalidations                0 # total number of invalidations
dtlb.miss_rate               0.0000 # miss rate (i.e., misses/ref)
dtlb.repl_rate               0.0000 # replacement rate (i.e., repls/ref)
dtlb.wb_rate                 0.0000 # writeback rate (i.e., wrbks/ref)
dtlb.inv_rate                0.0000 # invalidation rate (i.e., invs/ref)
sim_invalid_addrs                 0 # total non-speculative bogus addresses seen (debug var)
ld_text_base           0x0120000000 # program text (code) segment base
mem->ld_text_size              8192 # program text (code) size in bytes
mem->ld_data_base      0x0120000000 # program initialized data segment base
mem->ld_data_size              8192 # program init'ed `.data' and uninit'ed `.bss' size in bytes
mem->ld_stack_base     0x011ff9b000 # program stack segment base (highest address in stack)
mem->ld_stack_size            16384 # program initial stack size
mem->ld_prog_entry     0x0120000130 # program entry point (initial PC)
mem->ld_environ_base   0x011ff97000 # program environment base address address
mem->ld_target_big_endian            0 # target executable endian-ness, non-zero if big endian
mem_0.page_count                  3 # total number of pages allocated
mem_0.page_mem                  24k # total size of memory pages allocated
mem_0.ptab_misses                 3 # total first level page table misses
mem_0.ptab_accesses        16012590 # total page table accesses
mem_0.ptab_miss_rate         0.0000 # first level page table miss rate
rename_power            586413.7426 # total power usage of rename unit
bpred_power            4299005.4831 # total power usage of bpred unit
window_power           7788094.6739 # total power usage of instruction window
lsq_power              3551283.0198 # total power usage of load/store queue
regfile_power          3395456.1125 # total power usage of arch. regfile
icache_power           4024017.1288 # total power usage of icache
dcache_power           8789548.1168 # total power usage of dcache
dcache2_power          4942469.1786 # total power usage of dcache2
alu_power              18002640.1604 # total power usage of alu
falu_power             13573419.1686 # total power usage of falu
resultbus_power        5158121.7557 # total power usage of resultbus
clock_power            28006094.5036 # total power usage of clock
avg_rename_power             0.6170 # avg power usage of rename unit
avg_bpred_power              4.5231 # avg power usage of bpred unit
avg_window_power             8.1941 # avg power usage of instruction window
avg_lsq_power                3.7364 # avg power usage of lsq
avg_regfile_power            3.5725 # avg power usage of arch. regfile
avg_icache_power             4.2338 # avg power usage of icache
avg_dcache_power             9.2478 # avg power usage of dcache
avg_dcache2_power            5.2001 # avg power usage of dcache2
avg_alu_power               18.9412 # avg power usage of alu
avg_falu_power              14.2810 # avg power usage of falu
avg_resultbus_power          5.4270 # avg power usage of resultbus
avg_clock_power             29.4661 # avg power usage of clock
fetch_stage_power      8323022.6118 # total power usage of fetch stage
dispatch_stage_power    586413.7426 # total power usage of dispatch stage
issue_stage_power      48232156.9053 # total power usage of issue stage
avg_fetch_power              8.7569 # average power of fetch unit per cycle
avg_dispatch_power           0.6170 # average power of dispatch unit per cycle
avg_issue_power             50.7467 # average power of issue unit per cycle
total_power            88543143.8758 # total power per cycle
avg_total_power_cycle       93.1592 # average total power per cycle
avg_total_power_cycle_nofp_nod2      73.6780 # average total power per cycle
avg_total_power_insn        40.2413 # average total power per insn
avg_total_power_insn_nofp_nod2      31.8261 # average total power per insn
rename_power_cc1        570766.9937 # total power usage of rename unit_cc1
bpred_power_cc1         621988.6801 # total power usage of bpred unit_cc1
window_power_cc1       7776061.1247 # total power usage of instruction window_cc1
lsq_power_cc1          1169569.5135 # total power usage of lsq_cc1
regfile_power_cc1      2629724.6945 # total power usage of arch. regfile_cc1
icache_power_cc1       3916694.4814 # total power usage of icache_cc1
dcache_power_cc1       2543471.1515 # total power usage of dcache_cc1
dcache2_power_cc1           36.4010 # total power usage of dcache2_cc1
alu_power_cc1          11575677.1638 # total power usage of alu_cc1
resultbus_power_cc1    4970892.8909 # total power usage of resultbus_cc1
clock_power_cc1        16435008.7767 # total power usage of clock_cc1
avg_rename_power_cc1         0.6005 # avg power usage of rename unit_cc1
avg_bpred_power_cc1          0.6544 # avg power usage of bpred unit_cc1
avg_window_power_cc1         8.1815 # avg power usage of instruction window_cc1
avg_lsq_power_cc1            1.2305 # avg power usage of lsq_cc1
avg_regfile_power_cc1        2.7668 # avg power usage of arch. regfile_cc1
avg_icache_power_cc1         4.1209 # avg power usage of icache_cc1
avg_dcache_power_cc1         2.6761 # avg power usage of dcache_cc1
avg_dcache2_power_cc1        0.0000 # avg power usage of dcache2_cc1
avg_alu_power_cc1           12.1792 # avg power usage of alu_cc1
avg_resultbus_power_cc1       5.2300 # avg power usage of resultbus_cc1
avg_clock_power_cc1         17.2918 # avg power usage of clock_cc1
fetch_stage_power_cc1  4538683.1615 # total power usage of fetch stage_cc1
dispatch_stage_power_cc1  570766.9937 # total power usage of dispatch stage_cc1
issue_stage_power_cc1  28035708.2454 # total power usage of issue stage_cc1
avg_fetch_power_cc1          4.7753 # average power of fetch unit per cycle_cc1
avg_dispatch_power_cc1       0.6005 # average power of dispatch unit per cycle_cc1
avg_issue_power_cc1         29.4973 # average power of issue unit per cycle_cc1
total_power_cycle_cc1  52209891.8717 # total power per cycle_cc1
avg_total_power_cycle_cc1      54.9318 # average total power per cycle_cc1
avg_total_power_insn_cc1      23.7285 # average total power per insn_cc1
rename_power_cc2        339389.1516 # total power usage of rename unit_cc2
bpred_power_cc2         310994.3400 # total power usage of bpred unit_cc2
window_power_cc2       7602290.3334 # total power usage of instruction window_cc2
lsq_power_cc2           733351.8047 # total power usage of lsq_cc2
regfile_power_cc2       646053.0348 # total power usage of arch. regfile_cc2
icache_power_cc2       3916694.4814 # total power usage of icache_cc2
dcache_power_cc2       1387337.3920 # total power usage of dcache_cc2
dcache2_power_cc2           18.2005 # total power usage of dcache2_cc2
alu_power_cc2          5419600.7857 # total power usage of alu_cc2
resultbus_power_cc2    3804007.8017 # total power usage of resultbus_cc2
clock_power_cc2        11639287.3829 # total power usage of clock_cc2
avg_rename_power_cc2         0.3571 # avg power usage of rename unit_cc2
avg_bpred_power_cc2          0.3272 # avg power usage of bpred unit_cc2
avg_window_power_cc2         7.9986 # avg power usage of instruction window_cc2
avg_lsq_power_cc2            0.7716 # avg power usage of instruction lsq_cc2
avg_regfile_power_cc2        0.6797 # avg power usage of arch. regfile_cc2
avg_icache_power_cc2         4.1209 # avg power usage of icache_cc2
avg_dcache_power_cc2         1.4597 # avg power usage of dcache_cc2
avg_dcache2_power_cc2        0.0000 # avg power usage of dcache2_cc2
avg_alu_power_cc2            5.7021 # avg power usage of alu_cc2
avg_resultbus_power_cc2       4.0023 # avg power usage of resultbus_cc2
avg_clock_power_cc2         12.2461 # avg power usage of clock_cc2
fetch_stage_power_cc2  4227688.8214 # total power usage of fetch stage_cc2
dispatch_stage_power_cc2  339389.1516 # total power usage of dispatch stage_cc2
issue_stage_power_cc2  18946606.3179 # total power usage of issue stage_cc2
avg_fetch_power_cc2          4.4481 # average power of fetch unit per cycle_cc2
avg_dispatch_power_cc2       0.3571 # average power of dispatch unit per cycle_cc2
avg_issue_power_cc2         19.9344 # average power of issue unit per cycle_cc2
total_power_cycle_cc2  35799024.7086 # total power per cycle_cc2
avg_total_power_cycle_cc2      37.6653 # average total power per cycle_cc2
avg_total_power_insn_cc2      16.2700 # average total power per insn_cc2
rename_power_cc3        340953.8264 # total power usage of rename unit_cc3
bpred_power_cc3         678696.0203 # total power usage of bpred unit_cc3
window_power_cc3       7602573.7108 # total power usage of instruction window_cc3
lsq_power_cc3           956003.7447 # total power usage of lsq_cc3
regfile_power_cc3       686378.7427 # total power usage of arch. regfile_cc3
icache_power_cc3       3927426.7461 # total power usage of icache_cc3
dcache_power_cc3       2011945.0885 # total power usage of dcache_cc3
dcache2_power_cc3       494261.4783 # total power usage of dcache2_cc3
alu_power_cc3          6062297.0854 # total power usage of alu_cc3
resultbus_power_cc3    3804204.2603 # total power usage of resultbus_cc3
clock_power_cc3        12748590.0357 # total power usage of clock_cc3
avg_rename_power_cc3         0.3587 # avg power usage of rename unit_cc3
avg_bpred_power_cc3          0.7141 # avg power usage of bpred unit_cc3
avg_window_power_cc3         7.9989 # avg power usage of instruction window_cc3
avg_lsq_power_cc3            1.0058 # avg power usage of instruction lsq_cc3
avg_regfile_power_cc3        0.7222 # avg power usage of arch. regfile_cc3
avg_icache_power_cc3         4.1322 # avg power usage of icache_cc3
avg_dcache_power_cc3         2.1168 # avg power usage of dcache_cc3
avg_dcache2_power_cc3        0.5200 # avg power usage of dcache2_cc3
avg_alu_power_cc3            6.3783 # avg power usage of alu_cc3
avg_resultbus_power_cc3       4.0025 # avg power usage of resultbus_cc3
avg_clock_power_cc3         13.4132 # avg power usage of clock_cc3
fetch_stage_power_cc3  4606122.7665 # total power usage of fetch stage_cc3
dispatch_stage_power_cc3  340953.8264 # total power usage of dispatch stage_cc3
issue_stage_power_cc3  20931285.3679 # total power usage of issue stage_cc3
avg_fetch_power_cc3          4.8463 # average power of fetch unit per cycle_cc3
avg_dispatch_power_cc3       0.3587 # average power of dispatch unit per cycle_cc3
avg_issue_power_cc3         22.0225 # average power of issue unit per cycle_cc3
total_power_cycle_cc3  39313330.7392 # total power per cycle_cc3
avg_total_power_cycle_cc3      41.3629 # average total power per cycle_cc3
avg_total_power_insn_cc3      17.8672 # average total power per insn_cc3
total_rename_access         2200306 # total number accesses of rename unit
total_bpred_access           137513 # total number accesses of bpred unit
total_window_access         9850998 # total number accesses of instruction window
total_lsq_access             825086 # total number accesses of load/store queue
total_regfile_access        2462683 # total number accesses of arch. regfile
total_icache_access         2200347 # total number accesses of icache
total_dcache_access          300037 # total number accesses of dcache
total_dcache2_access              7 # total number accesses of dcache2
total_alu_access            3000252 # total number accesses of alu
total_resultbus_access      3012778 # total number accesses of resultbus
avg_rename_access            2.3150 # avg number accesses of rename unit
avg_bpred_access             0.1447 # avg number accesses of bpred unit
avg_window_access           10.3646 # avg number accesses of instruction window
avg_lsq_access               0.8681 # avg number accesses of lsq
avg_regfile_access           2.5911 # avg number accesses of arch. regfile
avg_icache_access            2.3151 # avg number accesses of icache
avg_dcache_access            0.3157 # avg number accesses of dcache
avg_dcache2_access           0.0000 # avg number accesses of dcache2
avg_alu_access               3.1567 # avg number accesses of alu
avg_resultbus_access         3.1698 # avg number accesses of resultbus
max_rename_access                 4 # max number accesses of rename unit
max_bpred_access                  1 # max number accesses of bpred unit
max_window_access                15 # max number accesses of instruction window
max_lsq_access                    3 # max number accesses of load/store queue
max_regfile_access                4 # max number accesses of arch. regfile
max_icache_access                 4 # max number accesses of icache
max_dcache_access                 2 # max number accesses of dcache
max_dcache2_access                1 # max number accesses of dcache2
max_alu_access                    5 # max number accesses of alu
max_resultbus_access              6 # max number accesses of resultbus
max_cycle_power_cc1         73.7744 # maximum cycle power usage of cc1
max_cycle_power_cc2         48.3787 # maximum cycle power usage of cc2
max_cycle_power_cc3         50.2344 # maximum cycle power usage of cc3


Cache Parameters:
  Size in bytes: 16384
  Number of sets: 512
  Associativity: 4
  Block Size (bytes): 8

Access Time: 9.27925e-09
Cycle Time:  1.09081e-08

Best Ndwl (L1): 8
Best Ndbl (L1): 1
Best Nspd (L1): 1
Best Ntwl (L1): 1
Best Ntbl (L1): 4
Best Ntspd (L1): 1

Time Components:
 data side (with Output driver) (ns): 8.44162
 tag side (ns): 8.55667
 decode_data (ns): 5.29318
 wordline_data (ns): 1.03507
 bitline_data (ns): 0.810785
 sense_amp_data (ns): 0.58
 decode_tag (ns): 2.37065
 wordline_tag (ns): 1.36749
 bitline_tag (ns): 0.158246
 sense_amp_tag (ns): 0.26
 compare (ns): 2.42991
 mux driver (ns): 1.6125
 sel inverter (ns): 0.357877
 data output driver (ns): 0.722579
 total data path (with output driver) (ns): 7.71904
 total tag path is set assoc (ns): 8.55667
 precharge time (ns): 1.6289

Cache Parameters:
  Size in bytes: 32768
  Number of sets: 512
  Associativity: 2
  Block Size (bytes): 32

Access Time: 9.43232e-09
Cycle Time:  1.14143e-08

Best Ndwl (L1): 4
Best Ndbl (L1): 1
Best Nspd (L1): 1
Best Ntwl (L1): 1
Best Ntbl (L1): 2
Best Ntspd (L1): 2

Time Components:
 data side (with Output driver) (ns): 8.05618
 tag side (ns): 8.45678
 decode_data (ns): 4.25828
 wordline_data (ns): 1.38811
 bitline_data (ns): 0.854247
 sense_amp_data (ns): 0.58
 decode_tag (ns): 2.01282
 wordline_tag (ns): 1.27279
 bitline_tag (ns): 0.179065
 sense_amp_tag (ns): 0.26
 compare (ns): 2.30022
 mux driver (ns): 2.08627
 sel inverter (ns): 0.345618
 data output driver (ns): 0.975536
 total data path (with output driver) (ns): 7.08064
 total tag path is set assoc (ns): 8.45678
 precharge time (ns): 1.98194

Cache Parameters:
  Size in bytes: 32768
  Number of sets: 256
  Associativity: 4
  Block Size (bytes): 32

Access Time: 9.99176e-09
Cycle Time:  1.21362e-08

Best Ndwl (L1): 4
Best Ndbl (L1): 2
Best Nspd (L1): 1
Best Ntwl (L1): 1
Best Ntbl (L1): 2
Best Ntspd (L1): 1

Time Components:
 data side (with Output driver) (ns): 7.13693
 tag side (ns): 8.6883
 decode_data (ns): 3.56242
 wordline_data (ns): 1.55063
 bitline_data (ns): 0.14043
 sense_amp_data (ns): 0.58
 decode_tag (ns): 2.01282
 wordline_tag (ns): 1.31698
 bitline_tag (ns): 0.16235
 sense_amp_tag (ns): 0.26
 compare (ns): 2.23669
 mux driver (ns): 2.36001
 sel inverter (ns): 0.339451
 data output driver (ns): 1.30346
 total data path (with output driver) (ns): 5.83348
 total tag path is set assoc (ns): 8.6883
 precharge time (ns): 2.14446

Cache Parameters:
  Size in bytes: 524288
  Number of sets: 1024
  Associativity: 8
  Block Size (bytes): 64

Access Time: 2.00419e-08
Cycle Time:  2.32766e-08

Best Ndwl (L1): 4
Best Ndbl (L1): 2
Best Nspd (L1): 1
Best Ntwl (L1): 1
Best Ntbl (L1): 2
Best Ntspd (L1): 1

Time Components:
 data side (with Output driver) (ns): 16.2461
 tag side (ns): 15.2007
 decode_data (ns): 7.31708
 wordline_data (ns): 2.64084
 bitline_data (ns): 0.866882
 sense_amp_data (ns): 0.58
 decode_tag (ns): 5.26633
 wordline_tag (ns): 2.07987
 bitline_tag (ns): 0.869036
 sense_amp_tag (ns): 0.26
 compare (ns): 2.06244
 mux driver (ns): 4.34109
 sel inverter (ns): 0.321932
 data output driver (ns): 4.84126
 total data path (with output driver) (ns): 11.4048
 total tag path is set assoc (ns): 15.2007
 precharge time (ns): 3.23467

******* SMT STATS *******
THROUGHPUT IPC: 2.3149

Sim_cycle : 950450

Total Number of Added Instrction in Rename : 400012
Total Number of UnRenamed Inst BecOf BandWidth : 0

Total Number of Added Instrction in Execute: 400006
Total Number of UnAdded Inst BecOf Bandwidth: 0
Total Number of UnAdded Inst BecOf NoFU : 0

Total Number of Selection Done: 3150304

Instruction Per Cycle In ROB 55
Instruction Per Cycle In IQ 31
Instruction Per Cycle In FP-RF 32
Bandwidth Miss 137875
Total FLOP 400005

	class: 0: 0 matching instances
	matching: 

	class: 1: 4 matching instances
	matching: 
integer-ALU (busy for 875088 cycles
) integer-ALU (busy for 762568 cycles
) integer-ALU (busy for 437550 cycles
) integer-ALU (busy for 125030 cycles
) 
	class: 2: 1 matching instances
	matching: 
integer-MULT/DIV (busy for 5 cycles
) 
	class: 3: 1 matching instances
	matching: 
integer-MULT/DIV (busy for 5 cycles
) 
	class: 4: 4 matching instances
	matching: 
FP-adder (busy for 550008 cycles
) FP-adder (busy for 500008 cycles
) FP-adder (busy for 400006 cycles
) FP-adder (busy for 150000 cycles
) 
	class: 5: 4 matching instances
	matching: 
FP-adder (busy for 550008 cycles
) FP-adder (busy for 500008 cycles
) FP-adder (busy for 400006 cycles
) FP-adder (busy for 150000 cycles
) 
	class: 6: 4 matching instances
	matching: 
FP-adder (busy for 550008 cycles
) FP-adder (busy for 500008 cycles
) FP-adder (busy for 400006 cycles
) FP-adder (busy for 150000 cycles
) 
	class: 7: 1 matching instances
	matching: 
FP-MULT/DIV (busy for 0 cycles
) 
	class: 8: 1 matching instances
	matching: 
FP-MULT/DIV (busy for 0 cycles
) 
	class: 9: 1 matching instances
	matching: 
FP-MULT/DIV (busy for 0 cycles
) 
	class: 10: 2 matching instances
	matching: 
memory-port (busy for 412545 cycles
) memory-port (busy for 137513 cycles
) 
	class: 11: 2 matching instances
	matching: 
memory-port (busy for 412545 cycles
) memory-port (busy for 137513 cycles
) 
	class: 12: 0 matching instances
	matching: 

	class: 13: 0 matching instances
	matching: 

	class: 14: 0 matching instances
	matching: 

	class: 15: 0 matching instances
	matching: 
