=== Legacy (Full Duplication) Statistics ===
sim_num_insn                2200028 # total number of instructions committed
sim_num_insn 0              2200000 # total number of instructions committed for this thread
sim_cycle                   1512875 # total simulation time in cycles
sim_IPC                      1.4542 # instructions per cycle
sim_CPI                      0.6877 # cycles per instruction
Total Number of Added Instrction in Rename : 1925063
Total Number of Added Instrction in Execute: 1100016
Total Number of Selection Done: 4675041
total_power_cycle_cc1  31514503.9885 # total power per cycle_cc1
avg_total_power_cycle_cc1      20.8309 # average total power per cycle_cc1
total_power_cycle_cc2  20818092.0785 # total power per cycle_cc2
avg_total_power_cycle_cc2      13.7606 # average total power per cycle_cc2
total_power_cycle_cc3  21970521.4727 # total power per cycle_cc3
avg_total_power_cycle_cc3      14.5224 # average total power per cycle_cc3
il1.accesses                2200115 # total number of accesses
il1.hits                    2200109 # total number of hits
il1.misses                        6 # total number of misses
il1.miss_rate                0.0000 # miss rate (i.e., misses/ref)
dl1.accesses                 550008 # total number of accesses
dl1.hits                     550008 # total number of hits
dl1.misses                        0 # total number of misses
dl1.miss_rate                0.0000 # miss rate (i.e., misses/ref)
ul2.accesses                      6 # total number of accesses
ul2.hits                          3 # total number of hits
ul2.misses                        3 # total number of misses
ul2.miss_rate                0.5000 # miss rate (i.e., misses/ref)
Thread_0_bpred_bimod.lookups       137507 # total number of bpred lookups
Thread_0_bpred_bimod.updates       274999 # total number of updates
Thread_0_bpred_bimod.misses            3 # total number of misses
integer-ALU (busy for 1375014 cycles
) integer-ALU (busy for 825005 cycles
) integer-ALU (busy for 0 cycles
) integer-ALU (busy for 0 cycles
FP-adder (busy for 1512519 cycles
) FP-adder (busy for 1512517 cycles
) FP-adder (busy for 1512512 cycles
) FP-adder (busy for 1512506 cycles
FP-adder (busy for 1512519 cycles
) FP-adder (busy for 1512517 cycles
) FP-adder (busy for 1512512 cycles
) FP-adder (busy for 1512506 cycles
FP-adder (busy for 1512519 cycles
) FP-adder (busy for 1512517 cycles
) FP-adder (busy for 1512512 cycles
) FP-adder (busy for 1512506 cycles
FP-MULT/DIV (busy for 2 cycles
FP-MULT/DIV (busy for 2 cycles
FP-MULT/DIV (busy for 2 cycles
